ELEMENTS
C H
END

SPECIES
PYRUVATE NAD NADH FAD FADH2 Q
ATP ADP AMP
AMPK LKB1 PP2A
AMPK_ATP AMPK_ADP AMPK_AMP
AMPKA AMPKA_ATP AMPKA_ADP AMPKA_AMP
AMPK_LKB1 AMPK_ATP_LKB1 AMPK_ADP_LKB1 AMPK_AMP_LKB1
AMPKA_PP2A AMPKA_ATP_PP2A AMPKA_ADP_PP2A AMPKA_AMP_PP2A
GLUCOUT GLUT1 GLUCIN GLUT1_GLUCOUT GLUT1_GLUCIN
AKT AKTA MTOR MTORA RHEB RHEBA TSC TSCA ULK ULKA
RAP RK FKBP12 RKMTORA RAPOUT
REF
END

THERMO ALL
300.000000 1000.000000 5000.000000
PYRUVATE                H   1C   0    0    0G    200      6000     1000        1
 1.65326226E+00 1.00263099E-02-3.31661238E-06 5.36483138E-10-3.14696758E-14    2
-1.00095936E+04 9.90506283E+00 5.14911468E+00-1.36622009E-02 4.91453921E-05    3
-4.84246767E-08 1.66603441E-11-1.02465983E+04-4.63848842E+00 0.00000000E+00    4
NAD                     H   1C   0    0    0G    200      6000     1000        1
 1.65326226E+00 1.00263099E-02-3.31661238E-06 5.36483138E-10-3.14696758E-14    2
-1.00095936E+04 9.90506283E+00 5.14911468E+00-1.36622009E-02 4.91453921E-05    3
-4.84246767E-08 1.66603441E-11-1.02465983E+04-4.63848842E+00 0.00000000E+00    4
NADH                    H   1C   0    0    0G    200      6000     1000        1
 1.65326226E+00 1.00263099E-02-3.31661238E-06 5.36483138E-10-3.14696758E-14    2
-1.00095936E+04 9.90506283E+00 5.14911468E+00-1.36622009E-02 4.91453921E-05    3
-4.84246767E-08 1.66603441E-11-1.02465983E+04-4.63848842E+00 0.00000000E+00    4
FAD                     H   1C   0    0    0G    200      6000     1000        1
 1.65326226E+00 1.00263099E-02-3.31661238E-06 5.36483138E-10-3.14696758E-14    2
-1.00095936E+04 9.90506283E+00 5.14911468E+00-1.36622009E-02 4.91453921E-05    3
-4.84246767E-08 1.66603441E-11-1.02465983E+04-4.63848842E+00 0.00000000E+00    4
FADH2                   H   1C   0    0    0G    200      6000     1000        1
 1.65326226E+00 1.00263099E-02-3.31661238E-06 5.36483138E-10-3.14696758E-14    2
-1.00095936E+04 9.90506283E+00 5.14911468E+00-1.36622009E-02 4.91453921E-05    3
-4.84246767E-08 1.66603441E-11-1.02465983E+04-4.63848842E+00 0.00000000E+00    4
Q                       H   1C   0    0    0G    200      6000     1000        1
 1.65326226E+00 1.00263099E-02-3.31661238E-06 5.36483138E-10-3.14696758E-14    2
-1.00095936E+04 9.90506283E+00 5.14911468E+00-1.36622009E-02 4.91453921E-05    3
-4.84246767E-08 1.66603441E-11-1.02465983E+04-4.63848842E+00 0.00000000E+00    4
ATP                     H   1C   0    0    0G    200      6000     1000        1
 1.65326226E+00 1.00263099E-02-3.31661238E-06 5.36483138E-10-3.14696758E-14    2
-1.00095936E+04 9.90506283E+00 5.14911468E+00-1.36622009E-02 4.91453921E-05    3
-4.84246767E-08 1.66603441E-11-1.02465983E+04-4.63848842E+00 0.00000000E+00    4
ADP                     H   1C   0    0    0G    200      6000     1000        1
 1.65326226E+00 1.00263099E-02-3.31661238E-06 5.36483138E-10-3.14696758E-14    2
-1.00095936E+04 9.90506283E+00 5.14911468E+00-1.36622009E-02 4.91453921E-05    3
-4.84246767E-08 1.66603441E-11-1.02465983E+04-4.63848842E+00 0.00000000E+00    4
AMP                     H   1C   0    0    0G    200      6000     1000        1
 1.65326226E+00 1.00263099E-02-3.31661238E-06 5.36483138E-10-3.14696758E-14    2
-1.00095936E+04 9.90506283E+00 5.14911468E+00-1.36622009E-02 4.91453921E-05    3
-4.84246767E-08 1.66603441E-11-1.02465983E+04-4.63848842E+00 0.00000000E+00    4
AMPK                    H   1C   0    0    0G    200      6000     1000        1
 1.65326226E+00 1.00263099E-02-3.31661238E-06 5.36483138E-10-3.14696758E-14    2
-1.00095936E+04 9.90506283E+00 5.14911468E+00-1.36622009E-02 4.91453921E-05    3
-4.84246767E-08 1.66603441E-11-1.02465983E+04-4.63848842E+00 0.00000000E+00    4
LKB1                    H   1C   0    0    0G    200      6000     1000        1
 1.65326226E+00 1.00263099E-02-3.31661238E-06 5.36483138E-10-3.14696758E-14    2
-1.00095936E+04 9.90506283E+00 5.14911468E+00-1.36622009E-02 4.91453921E-05    3
-4.84246767E-08 1.66603441E-11-1.02465983E+04-4.63848842E+00 0.00000000E+00    4
PP2A                    H   1C   0    0    0G    200      6000     1000        1
 1.65326226E+00 1.00263099E-02-3.31661238E-06 5.36483138E-10-3.14696758E-14    2
-1.00095936E+04 9.90506283E+00 5.14911468E+00-1.36622009E-02 4.91453921E-05    3
-4.84246767E-08 1.66603441E-11-1.02465983E+04-4.63848842E+00 0.00000000E+00    4
AMPK_ATP                H   1C   0    0    0G    200      6000     1000        1
 1.65326226E+00 1.00263099E-02-3.31661238E-06 5.36483138E-10-3.14696758E-14    2
-1.00095936E+04 9.90506283E+00 5.14911468E+00-1.36622009E-02 4.91453921E-05    3
-4.84246767E-08 1.66603441E-11-1.02465983E+04-4.63848842E+00 0.00000000E+00    4
AMPK_ADP                H   1C   0    0    0G    200      6000     1000        1
 1.65326226E+00 1.00263099E-02-3.31661238E-06 5.36483138E-10-3.14696758E-14    2
-1.00095936E+04 9.90506283E+00 5.14911468E+00-1.36622009E-02 4.91453921E-05    3
-4.84246767E-08 1.66603441E-11-1.02465983E+04-4.63848842E+00 0.00000000E+00    4
AMPK_AMP                H   1C   0    0    0G    200      6000     1000        1
 1.65326226E+00 1.00263099E-02-3.31661238E-06 5.36483138E-10-3.14696758E-14    2
-1.00095936E+04 9.90506283E+00 5.14911468E+00-1.36622009E-02 4.91453921E-05    3
-4.84246767E-08 1.66603441E-11-1.02465983E+04-4.63848842E+00 0.00000000E+00    4
AMPKA                   H   1C   0    0    0G    200      6000     1000        1
 1.65326226E+00 1.00263099E-02-3.31661238E-06 5.36483138E-10-3.14696758E-14    2
-1.00095936E+04 9.90506283E+00 5.14911468E+00-1.36622009E-02 4.91453921E-05    3
-4.84246767E-08 1.66603441E-11-1.02465983E+04-4.63848842E+00 0.00000000E+00    4
AMPKA_ATP               H   1C   0    0    0G    200      6000     1000        1
 1.65326226E+00 1.00263099E-02-3.31661238E-06 5.36483138E-10-3.14696758E-14    2
-1.00095936E+04 9.90506283E+00 5.14911468E+00-1.36622009E-02 4.91453921E-05    3
-4.84246767E-08 1.66603441E-11-1.02465983E+04-4.63848842E+00 0.00000000E+00    4
AMPKA_ADP               H   1C   0    0    0G    200      6000     1000        1
 1.65326226E+00 1.00263099E-02-3.31661238E-06 5.36483138E-10-3.14696758E-14    2
-1.00095936E+04 9.90506283E+00 5.14911468E+00-1.36622009E-02 4.91453921E-05    3
-4.84246767E-08 1.66603441E-11-1.02465983E+04-4.63848842E+00 0.00000000E+00    4
AMPKA_AMP               H   1C   0    0    0G    200      6000     1000        1
 1.65326226E+00 1.00263099E-02-3.31661238E-06 5.36483138E-10-3.14696758E-14    2
-1.00095936E+04 9.90506283E+00 5.14911468E+00-1.36622009E-02 4.91453921E-05    3
-4.84246767E-08 1.66603441E-11-1.02465983E+04-4.63848842E+00 0.00000000E+00    4
AMPK_LKB1               H   1C   0    0    0G    200      6000     1000        1
 1.65326226E+00 1.00263099E-02-3.31661238E-06 5.36483138E-10-3.14696758E-14    2
-1.00095936E+04 9.90506283E+00 5.14911468E+00-1.36622009E-02 4.91453921E-05    3
-4.84246767E-08 1.66603441E-11-1.02465983E+04-4.63848842E+00 0.00000000E+00    4
AMPK_ATP_LKB1           H   1C   0    0    0G    200      6000     1000        1
 1.65326226E+00 1.00263099E-02-3.31661238E-06 5.36483138E-10-3.14696758E-14    2
-1.00095936E+04 9.90506283E+00 5.14911468E+00-1.36622009E-02 4.91453921E-05    3
-4.84246767E-08 1.66603441E-11-1.02465983E+04-4.63848842E+00 0.00000000E+00    4
AMPK_ADP_LKB1           H   1C   0    0    0G    200      6000     1000        1
 1.65326226E+00 1.00263099E-02-3.31661238E-06 5.36483138E-10-3.14696758E-14    2
-1.00095936E+04 9.90506283E+00 5.14911468E+00-1.36622009E-02 4.91453921E-05    3
-4.84246767E-08 1.66603441E-11-1.02465983E+04-4.63848842E+00 0.00000000E+00    4
AMPK_AMP_LKB1           H   1C   0    0    0G    200      6000     1000        1
 1.65326226E+00 1.00263099E-02-3.31661238E-06 5.36483138E-10-3.14696758E-14    2
-1.00095936E+04 9.90506283E+00 5.14911468E+00-1.36622009E-02 4.91453921E-05    3
-4.84246767E-08 1.66603441E-11-1.02465983E+04-4.63848842E+00 0.00000000E+00    4
AMPKA_PP2A              H   1C   0    0    0G    200      6000     1000        1
 1.65326226E+00 1.00263099E-02-3.31661238E-06 5.36483138E-10-3.14696758E-14    2
-1.00095936E+04 9.90506283E+00 5.14911468E+00-1.36622009E-02 4.91453921E-05    3
-4.84246767E-08 1.66603441E-11-1.02465983E+04-4.63848842E+00 0.00000000E+00    4
AMPKA_ATP_PP2A          H   1C   0    0    0G    200      6000     1000        1
 1.65326226E+00 1.00263099E-02-3.31661238E-06 5.36483138E-10-3.14696758E-14    2
-1.00095936E+04 9.90506283E+00 5.14911468E+00-1.36622009E-02 4.91453921E-05    3
-4.84246767E-08 1.66603441E-11-1.02465983E+04-4.63848842E+00 0.00000000E+00    4
AMPKA_ADP_PP2A          H   1C   0    0    0G    200      6000     1000        1
 1.65326226E+00 1.00263099E-02-3.31661238E-06 5.36483138E-10-3.14696758E-14    2
-1.00095936E+04 9.90506283E+00 5.14911468E+00-1.36622009E-02 4.91453921E-05    3
-4.84246767E-08 1.66603441E-11-1.02465983E+04-4.63848842E+00 0.00000000E+00    4
AMPKA_AMP_PP2A          H   1C   0    0    0G    200      6000     1000        1
 1.65326226E+00 1.00263099E-02-3.31661238E-06 5.36483138E-10-3.14696758E-14    2
-1.00095936E+04 9.90506283E+00 5.14911468E+00-1.36622009E-02 4.91453921E-05    3
-4.84246767E-08 1.66603441E-11-1.02465983E+04-4.63848842E+00 0.00000000E+00    4
GLUCOUT                 H   1C   0    0    0G    200      6000     1000        1
 1.65326226E+00 1.00263099E-02-3.31661238E-06 5.36483138E-10-3.14696758E-14    2
-1.00095936E+04 9.90506283E+00 5.14911468E+00-1.36622009E-02 4.91453921E-05    3
-4.84246767E-08 1.66603441E-11-1.02465983E+04-4.63848842E+00 0.00000000E+00    4
GLUT1                   H   1C   0    0    0G    200      6000     1000        1
 1.65326226E+00 1.00263099E-02-3.31661238E-06 5.36483138E-10-3.14696758E-14    2
-1.00095936E+04 9.90506283E+00 5.14911468E+00-1.36622009E-02 4.91453921E-05    3
-4.84246767E-08 1.66603441E-11-1.02465983E+04-4.63848842E+00 0.00000000E+00    4
GLUCIN                  H   1C   0    0    0G    200      6000     1000        1
 1.65326226E+00 1.00263099E-02-3.31661238E-06 5.36483138E-10-3.14696758E-14    2
-1.00095936E+04 9.90506283E+00 5.14911468E+00-1.36622009E-02 4.91453921E-05    3
-4.84246767E-08 1.66603441E-11-1.02465983E+04-4.63848842E+00 0.00000000E+00    4
GLUT1_GLUCOUT           H   1C   0    0    0G    200      6000     1000        1
 1.65326226E+00 1.00263099E-02-3.31661238E-06 5.36483138E-10-3.14696758E-14    2
-1.00095936E+04 9.90506283E+00 5.14911468E+00-1.36622009E-02 4.91453921E-05    3
-4.84246767E-08 1.66603441E-11-1.02465983E+04-4.63848842E+00 0.00000000E+00    4
GLUT1_GLUCIN            H   1C   0    0    0G    200      6000     1000        1
 1.65326226E+00 1.00263099E-02-3.31661238E-06 5.36483138E-10-3.14696758E-14    2
-1.00095936E+04 9.90506283E+00 5.14911468E+00-1.36622009E-02 4.91453921E-05    3
-4.84246767E-08 1.66603441E-11-1.02465983E+04-4.63848842E+00 0.00000000E+00    4
AKT                     H   1C   0    0    0G    200      6000     1000        1
 1.65326226E+00 1.00263099E-02-3.31661238E-06 5.36483138E-10-3.14696758E-14    2
-1.00095936E+04 9.90506283E+00 5.14911468E+00-1.36622009E-02 4.91453921E-05    3
-4.84246767E-08 1.66603441E-11-1.02465983E+04-4.63848842E+00 0.00000000E+00    4
AKTA                    H   1C   0    0    0G    200      6000     1000        1
 1.65326226E+00 1.00263099E-02-3.31661238E-06 5.36483138E-10-3.14696758E-14    2
-1.00095936E+04 9.90506283E+00 5.14911468E+00-1.36622009E-02 4.91453921E-05    3
-4.84246767E-08 1.66603441E-11-1.02465983E+04-4.63848842E+00 0.00000000E+00    4
MTOR                    H   1C   0    0    0G    200      6000     1000        1
 1.65326226E+00 1.00263099E-02-3.31661238E-06 5.36483138E-10-3.14696758E-14    2
-1.00095936E+04 9.90506283E+00 5.14911468E+00-1.36622009E-02 4.91453921E-05    3
-4.84246767E-08 1.66603441E-11-1.02465983E+04-4.63848842E+00 0.00000000E+00    4
MTORA                   H   1C   0    0    0G    200      6000     1000        1
 1.65326226E+00 1.00263099E-02-3.31661238E-06 5.36483138E-10-3.14696758E-14    2
-1.00095936E+04 9.90506283E+00 5.14911468E+00-1.36622009E-02 4.91453921E-05    3
-4.84246767E-08 1.66603441E-11-1.02465983E+04-4.63848842E+00 0.00000000E+00    4
RHEB                    H   1C   0    0    0G    200      6000     1000        1
 1.65326226E+00 1.00263099E-02-3.31661238E-06 5.36483138E-10-3.14696758E-14    2
-1.00095936E+04 9.90506283E+00 5.14911468E+00-1.36622009E-02 4.91453921E-05    3
-4.84246767E-08 1.66603441E-11-1.02465983E+04-4.63848842E+00 0.00000000E+00    4
RHEBA                   H   1C   0    0    0G    200      6000     1000        1
 1.65326226E+00 1.00263099E-02-3.31661238E-06 5.36483138E-10-3.14696758E-14    2
-1.00095936E+04 9.90506283E+00 5.14911468E+00-1.36622009E-02 4.91453921E-05    3
-4.84246767E-08 1.66603441E-11-1.02465983E+04-4.63848842E+00 0.00000000E+00    4
TSC                     H   1C   0    0    0G    200      6000     1000        1
 1.65326226E+00 1.00263099E-02-3.31661238E-06 5.36483138E-10-3.14696758E-14    2
-1.00095936E+04 9.90506283E+00 5.14911468E+00-1.36622009E-02 4.91453921E-05    3
-4.84246767E-08 1.66603441E-11-1.02465983E+04-4.63848842E+00 0.00000000E+00    4
TSCA                    H   1C   0    0    0G    200      6000     1000        1
 1.65326226E+00 1.00263099E-02-3.31661238E-06 5.36483138E-10-3.14696758E-14    2
-1.00095936E+04 9.90506283E+00 5.14911468E+00-1.36622009E-02 4.91453921E-05    3
-4.84246767E-08 1.66603441E-11-1.02465983E+04-4.63848842E+00 0.00000000E+00    4
ULK                     H   1C   0    0    0G    200      6000     1000        1
 1.65326226E+00 1.00263099E-02-3.31661238E-06 5.36483138E-10-3.14696758E-14    2
-1.00095936E+04 9.90506283E+00 5.14911468E+00-1.36622009E-02 4.91453921E-05    3
-4.84246767E-08 1.66603441E-11-1.02465983E+04-4.63848842E+00 0.00000000E+00    4
ULKA                    H   1C   0    0    0G    200      6000     1000        1
 1.65326226E+00 1.00263099E-02-3.31661238E-06 5.36483138E-10-3.14696758E-14    2
-1.00095936E+04 9.90506283E+00 5.14911468E+00-1.36622009E-02 4.91453921E-05    3
-4.84246767E-08 1.66603441E-11-1.02465983E+04-4.63848842E+00 0.00000000E+00    4
RAP                     H   1C   0    0    0G    200      6000     1000        1
 1.65326226E+00 1.00263099E-02-3.31661238E-06 5.36483138E-10-3.14696758E-14    2
-1.00095936E+04 9.90506283E+00 5.14911468E+00-1.36622009E-02 4.91453921E-05    3
-4.84246767E-08 1.66603441E-11-1.02465983E+04-4.63848842E+00 0.00000000E+00    4
RK                      H   1C   0    0    0G    200      6000     1000        1
 1.65326226E+00 1.00263099E-02-3.31661238E-06 5.36483138E-10-3.14696758E-14    2
-1.00095936E+04 9.90506283E+00 5.14911468E+00-1.36622009E-02 4.91453921E-05    3
-4.84246767E-08 1.66603441E-11-1.02465983E+04-4.63848842E+00 0.00000000E+00    4
FKBP12                  H   1C   0    0    0G    200      6000     1000        1
 1.65326226E+00 1.00263099E-02-3.31661238E-06 5.36483138E-10-3.14696758E-14    2
-1.00095936E+04 9.90506283E+00 5.14911468E+00-1.36622009E-02 4.91453921E-05    3
-4.84246767E-08 1.66603441E-11-1.02465983E+04-4.63848842E+00 0.00000000E+00    4
RKMTORA                 H   1C   0    0    0G    200      6000     1000        1
 1.65326226E+00 1.00263099E-02-3.31661238E-06 5.36483138E-10-3.14696758E-14    2
-1.00095936E+04 9.90506283E+00 5.14911468E+00-1.36622009E-02 4.91453921E-05    3
-4.84246767E-08 1.66603441E-11-1.02465983E+04-4.63848842E+00 0.00000000E+00    4
RAPOUT                  H   1C   0    0    0G    200      6000     1000        1
 1.65326226E+00 1.00263099E-02-3.31661238E-06 5.36483138E-10-3.14696758E-14    2
-1.00095936E+04 9.90506283E+00 5.14911468E+00-1.36622009E-02 4.91453921E-05    3
-4.84246767E-08 1.66603441E-11-1.02465983E+04-4.63848842E+00 0.00000000E+00    4
REF                     H   1C   0    0    0G    200      6000     1000        1
 1.65326226E+00 1.00263099E-02-3.31661238E-06 5.36483138E-10-3.14696758E-14    2
-1.00095936E+04 9.90506283E+00 5.14911468E+00-1.36622009E-02 4.91453921E-05    3
-4.84246767E-08 1.66603441E-11-1.02465983E+04-4.63848842E+00 0.00000000E+00    4
END
REACTIONS MOLES KELVINS

!%%%%%%%%%%%%%%%%%%%%%%%%%%%%%%%%%%%%%%%%% GLUCOSE SENSING %%%%%%%%%%%%%%%%%%%%%%%%%%%%%%%%%%%%%%%%%
!Try
!REF => GLUCOUT          1E-09     0.00000         0.00
!GLUCOUT => REF          1E-03     0.00000         0.00
! -------------------- Zhou2022 --------------------
! GLUCOSE Transport Module
GLUT1 + GLUCOUT => GLUT1_GLUCOUT + REF            1.28E+06     0.00000         0.00 !1.28E+06
GLUT1_GLUCOUT + REF => GLUT1 + GLUCOUT            1.553        0.00000         0.00 !0.0555   ! K_in MM constant = 0.13 [mM]
GLUT1_GLUCOUT + REF => GLUT1 + GLUCIN             0.111        0.00000         0.00 !0.111   
! Efflux
GLUT1 + GLUCIN => GLUT1_GLUCIN + REF              1.28E+06     0.00000         0.00 !1.28E+06
GLUT1_GLUCIN + REF => GLUT1 + GLUCIN              1.553        0.00000         0.00 !0.0555  
GLUT1_GLUCIN + REF => GLUT1 + GLUCOUT             0.111        0.00000         0.00 !0.111   
! -------------------- Vibe Coding -----------------
! ------- GLUCOSE-AXP Module -------              Substrate level ATP
GLUCIN + 5 REF => 2 PYRUVATE + 2 NADH + 2 Q       1E-4      0.00000            0.00 !GPT: 1.4e-02, why not 2 ATP instead of 2 Q?
2 PYRUVATE + 10 REF => 8 NADH + 2 FADH2 + 2 Q     1E+01     0.00000            0.00 !GPT: 5e-03 if we add 2 ATP instead of Q --> 2 ADP needs to appear
! Is 10 REF 10*[1]*k, or is it [1]^10=1k, with [1] being REF cc.                    !on the left side --> much higher order reaciton
!                                                 Oxidative Phosphorylation
NADH + 5 REF   => NAD  + 5 Q                      5.0E-03     0.00000          0.00 !s^-1 per NADH - Build proton-motive tokens (Q); make these unimolecular in NADH/FADH2
FADH2 + 3 REF  => FAD  + 3 Q                      5.0E-03     0.00000          0.00 !s^-1 per FADH2
2 Q + ADP    => ATP + 2 REF                       1.0E+06     0.00000          0.00 !orig: 1.0E+06cm^3·mol^-1·s^-1 - ATP synthase: each ATP consumes 2 Q + ADP
! 10 NADH + 2 FADH2 --> 56 Q --> 28 ATP
! ----------------- Vibe Coding End ----------------
!                                                 Metabolism
ATP => ADP                                        1.3E-03     0.00000            0.00 !1E-04 !2.6E-02  ! k_rest coccimigliio2020
2 ADP => ATP + AMP                                1.67E+05     0.00000            0.00 !1.67E+07
ATP + AMP => 2 ADP                                1.67E+05     0.00000            0.00 !1.67E+07
! -------------------- Coccimiglio2020 --------------------
! ------- AMPK-AXP complexes -------                                                      Coccimiglio et al. (2020)
ATP + AMPK => AMPK_ATP + REF                      1E+06        0.00000         0.00 !k6f, https://doi.org/10.1371/journal.pcbi.1008079
AMPK_ATP + REF => ATP + AMPK                      2.2E-01      0.00000         0.00 !k6r, https://doi.org/10.1371/journal.pcbi.1008079
ADP + AMPK => AMPK_ADP + REF                      1.5E+06      0.00000         0.00 !k7f, https://doi.org/10.1371/journal.pcbi.1008079
AMPK_ADP + REF => ADP + AMPK                      2.25E-03     0.00000         0.00 !k7r, https://doi.org/10.1371/journal.pcbi.1008079
AMP + AMPK => AMPK_AMP + REF                      1.5E+06      0.00000         0.00 !k8f, https://doi.org/10.1371/journal.pcbi.1008079
AMPK_AMP + REF => AMP + AMPK                      3.75E-03     0.00000         0.00 !k8r, https://doi.org/10.1371/journal.pcbi.1008079
! ------- AMPKA-AXP complexes -------
ATP + AMPKA => AMPKA_ATP + REF                    1E+06        0.00000         0.00 !k6f, https://doi.org/10.1371/journal.pcbi.1008079
AMPKA_ATP + REF => ATP + AMPKA                    4E-01        0.00000         0.00 !k6r, https://doi.org/10.1371/journal.pcbi.1008079
ADP + AMPKA => AMPKA_ADP + REF                    1.5E+06      0.00000         0.00 !k7f, https://doi.org/10.1371/journal.pcbi.1008079
AMPKA_ADP + REF => ADP + AMPKA                    2.25E-03     0.00000         0.00 !k7r, https://doi.org/10.1371/journal.pcbi.1008079
AMP + AMPKA => AMPKA_AMP + REF                    1E+06        0.00000         0.00 !k8f, https://doi.org/10.1371/journal.pcbi.1008079
AMPKA_AMP + REF => AMP + AMPKA                    3.75E-03     0.00000         0.00 !k8r, https://doi.org/10.1371/journal.pcbi.1008079
! ------- AMPK Phosphorylation -------            k values below may be alterd   -  Commented k values below are the orig. values from Coccimiglio et al.
AMPK + LKB1 => AMPK_LKB1 + REF                    3.61E+06     0.00000         0.00 !3.61E+06
AMPK_LKB1 + REF => AMPK + LKB1                    5E+03        0.00000         0.00 !5E+03   
AMPK_LKB1 + REF => AMPKA + LKB1                   5E+01        0.00000         0.00 !5E+01   
! ------- AMPKA Dephosphorylation -------
AMPKA + PP2A => AMPKA_PP2A + REF                  8.21E+06     0.00000         0.00 !8.21E+06
AMPKA_PP2A + REF => AMPKA + PP2A                  5E+02        0.00000         0.00 !5E+02   
AMPKA_PP2A + REF => AMPK + PP2A                   5E+01        0.00000         0.00 !5E+01   
! ------- AMPK_ATP Phosphorylation -------
AMPK_ATP + LKB1 => AMPK_ATP_LKB1 + REF            3.61E+06     0.00000         0.00 !3.61E+06
AMPK_ATP_LKB1 + REF => AMPK_ATP + LKB1            5E+03        0.00000         0.00 !5E+03   
AMPK_ATP_LKB1 + REF => AMPKA_ATP + LKB1           5E+00        0.00000         0.00 !5E+01
! ------- AMPKA_ATP Dephosphorylation ------- !PKA_ATP 
AMPKA_ATP + PP2A => AMPKA_ATP_PP2A + REF          8.21E+06     0.00000         0.00 !8.21E+06
AMPKA_ATP_PP2A + REF => AMPKA_ATP + PP2A          5E+02        0.00000         0.00 !5E+02   
AMPKA_ATP_PP2A + REF => AMPK_ATP + PP2A           5E+02        0.00000         0.00 !5E+01   
! ------- AMPK_ADP Phosphorylation -------
AMPK_ADP + LKB1 => AMPK_ADP_LKB1 + REF            5.41E+06     0.00000         0.00 !5.41E+06
AMPK_ADP_LKB1 + REF => AMPK_ADP + LKB1            7.5E+01      0.00000         0.00 !7.5E+03 
AMPK_ADP_LKB1 + REF => AMPKA_ADP + LKB1           1.5E+02      0.00000         0.00 !7.5E+01
! ------- AMPKA_ADP Dephosphorylation -------
AMPKA_ADP + PP2A => AMPKA_ADP_PP2A + REF          8.21E+04     0.00000         0.00 !8.21E+04
AMPKA_ADP_PP2A + REF => AMPKA_ADP + PP2A          5E+00        0.00000         0.00 !5E+00   
AMPKA_ADP_PP2A + REF => AMPK_ADP + PP2A           1E+00        0.00000         0.00 !1E+00   
! ------- AMPK_AMP Phosphorylation -------
AMPK_AMP + LKB1 => AMPK_AMP_LKB1 + REF            1.44E+07     0.00000         0.00 !1.44E+07
AMPK_AMP_LKB1 + REF => AMPK_AMP + LKB1            2E+01        0.00000         0.00 !2E+04   
AMPK_AMP_LKB1 + REF => AMPKA_AMP + LKB1           3E+02        0.00000         0.00 !2E+02 2-5 fold more active compared to AMPKA_ADP (https://doi.org/10.1038/nature09932)
! ------- AMPKA_AMP Dephosphorylation -------
AMPKA_AMP + PP2A => AMPKA_AMP_PP2A + REF          8.21E+04     0.00000         0.00 !8.21E+04
AMPKA_AMP_PP2A + REF => AMPKA_AMP + PP2A          5E+00        0.00000         0.00 !5E+00   
AMPKA_AMP_PP2A + REF => AMPK_AMP + PP2A           1E+00        0.00000         0.00 !1E+00   
!
!
!%%%%%%%%%%%%%%%%%%%%%%%%%%%%%%%%%%%%%%%%% AMPK-mTOR-ULK Triangle %%%%%%%%%%%%%%%%%%%%%%%%%%%%%%%%%%%%%%%%%
!
!
AMPKA + MTORA => AMPKA + MTOR                     1.01423E+09  0.00000         0.00!6.0854E+09 *1/6
AMPKA_ATP + MTORA => AMPKA_ATP + MTOR             1.01423E+09  0.00000         0.00!6.0854E+09 *1/6
AMPKA_ADP + MTORA => AMPKA_ADP + MTOR             1.01423E+09  0.00000         0.00!6.0854E+09 *1/6
AMPKA_AMP + MTORA => AMPKA_AMP + MTOR             3.04269E+09  0.00000         0.00!6.0854E+09 *3/6
MTORA => MTOR                                     3.5467E-04   0.00000         0.00
MTORA + AMPKA => MTORA + AMPK                     9.6385E+03   0.00000         0.00!3.8554E+04 *1/4
MTORA + AMPKA_ATP => MTORA + AMPK_ATP             9.6385E+03   0.00000         0.00!3.8554E+04 *1/4
MTORA + AMPKA_ADP => MTORA + AMPK_ADP             9.6385E+03   0.00000         0.00!3.8554E+04 *1/4
MTORA + AMPKA_AMP => MTORA + AMPK_AMP             9.6385E+03   0.00000         0.00!3.8554E+04 *1/4
ULKA + MTORA => MTORA + ULK                       1.6122E+08   0.00000         0.00
ULKA + MTORA => MTOR + ULKA                       1.9507E+05   0.00000         0.00
AMPKA + TSC => AMPKA + TSCA                       1.489E+03    0.00000         0.00!1.8049E+04 *0.33/4
AMPKA_ATP + TSC => AMPKA_ATP + TSCA               1.489E+03    0.00000         0.00!1.8049E+04 *0.33/4
AMPKA_ADP + TSC => AMPKA_ADP + TSCA               1.5342E+03   0.00000         0.00!1.8049E+04 *0.34/4
AMPKA_AMP + TSC => AMPKA_AMP + TSCA               1.3537E+04   0.00000         0.00!1.8049E+04 *3/4   
RHEBA + TSCA => RHEB + TSCA                       5.2292E+03   0.00000         0.00
RHEBA + MTOR => RHEBA + MTORA                     1.4312E+08   0.00000         0.00
RHEB => RHEBA                                     9.2104E-08   0.00000         0.00
AKTA => AKT                                       5.0667E-07   0.00000         0.00
AKTA + TSCA => AKTA + TSC                         6.4680E+09   0.00000         0.00
AMPKA + ULK => AMPKA + ULKA                       3.3223E+02   0.00000         0.00!4.0270E+03 *0.33/4
AMPKA_ATP + ULK => AMPKA_ATP + ULKA               3.3223E+02   0.00000         0.00!4.0270E+03 *0.33/4
AMPKA_ADP + ULK => AMPKA_ADP + ULKA               3.423E+02    0.00000         0.00!4.0270E+03 *0.34/4
AMPKA_AMP + ULK => AMPKA_AMP + ULKA               3.0203E+03   0.00000         0.00!4.0270E+03 *3/4   
ULKA => ULK                                       2.8119E-01   0.00000         0.00
AMPKA + ULKA => AMPK + ULKA                       4.1653E+04   0.00000         0.00!1.6661E+05 *1/4
AMPKA_ATP + ULKA => AMPK_ATP + ULKA               4.1653E+04   0.00000         0.00!1.6661E+05 *1/4
AMPKA_ADP + ULKA => AMPK_ADP + ULKA               4.1653E+04   0.00000         0.00!1.6661E+05 *1/4
AMPKA_AMP + ULKA => AMPK_AMP + ULKA               4.1653E+04   0.00000         0.00!1.6661E+05 *1/4
!
!AMPKA=>AMPK                         4.0934E-07  0.00000         0.00 <-- Already implemented above
!
!%%%%%%%%%%%%%%%%%%%%%%%%%%%%%%%%%%%%%%%%% RAP - mTOR %%%%%%%%%%%%%%%%%%%%%%%%%%%%%%%%%%%%%%%%%
!
!
RAPOUT => RAP                                     6.6700E-09   0.00000         0.00
RAP => RAPOUT                                     3.3333E-03   0.00000         0.00
RAP + FKBP12 => RK+REF                            1.9000E+09   0.00000         0.00               
REF + RK => RAP + FKBP12                          5.3000E-04   0.00000         0.00
RK + MTORA => RKMTORA + REF                       2.6000E+09   0.00000         0.00
RKMTORA + REF => RK + MTORA                       3.0800E-02   0.00000         0.00
END