ELEMENTS
C H
END

SPECIES
PYRUVATE
ATP ADP AMP
AMPK AMPKK APHOS
AMPK_ATP AMPK_ADP AMPK_AMP
AMPKP AMPKP_ATP AMPKP_ADP AMPKP_AMP
AMPK_AMPKK AMPK_ATP_AMPKK AMPK_ADP_AMPKK AMPK_AMP_AMPKK
AMPKP_APHOS AMPKP_ATP_APHOS AMPKP_ADP_APHOS AMPKP_AMP_APHOS
GLUCOUT GLUT1 GLUCIN GLUT1_GLUCOUT GLUT1_GLUCIN
REF
END

THERMO ALL
300.000000 1000.000000 5000.000000
PYRUVATE                H   1C   0    0    0G    200      6000     1000        1
 1.65326226E+00 1.00263099E-02-3.31661238E-06 5.36483138E-10-3.14696758E-14    2
-1.00095936E+04 9.90506283E+00 5.14911468E+00-1.36622009E-02 4.91453921E-05    3
-4.84246767E-08 1.66603441E-11-1.02465983E+04-4.63848842E+00 0.00000000E+00    4
ATP                     H   1C   0    0    0G    200      6000     1000        1
 1.65326226E+00 1.00263099E-02-3.31661238E-06 5.36483138E-10-3.14696758E-14    2
-1.00095936E+04 9.90506283E+00 5.14911468E+00-1.36622009E-02 4.91453921E-05    3
-4.84246767E-08 1.66603441E-11-1.02465983E+04-4.63848842E+00 0.00000000E+00    4
ADP                     H   1C   0    0    0G    200      6000     1000        1
 1.65326226E+00 1.00263099E-02-3.31661238E-06 5.36483138E-10-3.14696758E-14    2
-1.00095936E+04 9.90506283E+00 5.14911468E+00-1.36622009E-02 4.91453921E-05    3
-4.84246767E-08 1.66603441E-11-1.02465983E+04-4.63848842E+00 0.00000000E+00    4
AMP                     H   1C   0    0    0G    200      6000     1000        1
 1.65326226E+00 1.00263099E-02-3.31661238E-06 5.36483138E-10-3.14696758E-14    2
-1.00095936E+04 9.90506283E+00 5.14911468E+00-1.36622009E-02 4.91453921E-05    3
-4.84246767E-08 1.66603441E-11-1.02465983E+04-4.63848842E+00 0.00000000E+00    4
AMPK                    H   1C   0    0    0G    200      6000     1000        1
 1.65326226E+00 1.00263099E-02-3.31661238E-06 5.36483138E-10-3.14696758E-14    2
-1.00095936E+04 9.90506283E+00 5.14911468E+00-1.36622009E-02 4.91453921E-05    3
-4.84246767E-08 1.66603441E-11-1.02465983E+04-4.63848842E+00 0.00000000E+00    4
AMPKK                   H   1C   0    0    0G    200      6000     1000        1
 1.65326226E+00 1.00263099E-02-3.31661238E-06 5.36483138E-10-3.14696758E-14    2
-1.00095936E+04 9.90506283E+00 5.14911468E+00-1.36622009E-02 4.91453921E-05    3
-4.84246767E-08 1.66603441E-11-1.02465983E+04-4.63848842E+00 0.00000000E+00    4
APHOS                   H   1C   0    0    0G    200      6000     1000        1
 1.65326226E+00 1.00263099E-02-3.31661238E-06 5.36483138E-10-3.14696758E-14    2
-1.00095936E+04 9.90506283E+00 5.14911468E+00-1.36622009E-02 4.91453921E-05    3
-4.84246767E-08 1.66603441E-11-1.02465983E+04-4.63848842E+00 0.00000000E+00    4
AMPK_ATP                H   1C   0    0    0G    200      6000     1000        1
 1.65326226E+00 1.00263099E-02-3.31661238E-06 5.36483138E-10-3.14696758E-14    2
-1.00095936E+04 9.90506283E+00 5.14911468E+00-1.36622009E-02 4.91453921E-05    3
-4.84246767E-08 1.66603441E-11-1.02465983E+04-4.63848842E+00 0.00000000E+00    4
AMPK_ADP                H   1C   0    0    0G    200      6000     1000        1
 1.65326226E+00 1.00263099E-02-3.31661238E-06 5.36483138E-10-3.14696758E-14    2
-1.00095936E+04 9.90506283E+00 5.14911468E+00-1.36622009E-02 4.91453921E-05    3
-4.84246767E-08 1.66603441E-11-1.02465983E+04-4.63848842E+00 0.00000000E+00    4
AMPK_AMP                H   1C   0    0    0G    200      6000     1000        1
 1.65326226E+00 1.00263099E-02-3.31661238E-06 5.36483138E-10-3.14696758E-14    2
-1.00095936E+04 9.90506283E+00 5.14911468E+00-1.36622009E-02 4.91453921E-05    3
-4.84246767E-08 1.66603441E-11-1.02465983E+04-4.63848842E+00 0.00000000E+00    4
AMPKP                   H   1C   0    0    0G    200      6000     1000        1
 1.65326226E+00 1.00263099E-02-3.31661238E-06 5.36483138E-10-3.14696758E-14    2
-1.00095936E+04 9.90506283E+00 5.14911468E+00-1.36622009E-02 4.91453921E-05    3
-4.84246767E-08 1.66603441E-11-1.02465983E+04-4.63848842E+00 0.00000000E+00    4
AMPKP_ATP               H   1C   0    0    0G    200      6000     1000        1
 1.65326226E+00 1.00263099E-02-3.31661238E-06 5.36483138E-10-3.14696758E-14    2
-1.00095936E+04 9.90506283E+00 5.14911468E+00-1.36622009E-02 4.91453921E-05    3
-4.84246767E-08 1.66603441E-11-1.02465983E+04-4.63848842E+00 0.00000000E+00    4
AMPKP_ADP               H   1C   0    0    0G    200      6000     1000        1
 1.65326226E+00 1.00263099E-02-3.31661238E-06 5.36483138E-10-3.14696758E-14    2
-1.00095936E+04 9.90506283E+00 5.14911468E+00-1.36622009E-02 4.91453921E-05    3
-4.84246767E-08 1.66603441E-11-1.02465983E+04-4.63848842E+00 0.00000000E+00    4
AMPKP_AMP               H   1C   0    0    0G    200      6000     1000        1
 1.65326226E+00 1.00263099E-02-3.31661238E-06 5.36483138E-10-3.14696758E-14    2
-1.00095936E+04 9.90506283E+00 5.14911468E+00-1.36622009E-02 4.91453921E-05    3
-4.84246767E-08 1.66603441E-11-1.02465983E+04-4.63848842E+00 0.00000000E+00    4
AMPK_AMPKK              H   1C   0    0    0G    200      6000     1000        1
 1.65326226E+00 1.00263099E-02-3.31661238E-06 5.36483138E-10-3.14696758E-14    2
-1.00095936E+04 9.90506283E+00 5.14911468E+00-1.36622009E-02 4.91453921E-05    3
-4.84246767E-08 1.66603441E-11-1.02465983E+04-4.63848842E+00 0.00000000E+00    4
AMPK_ATP_AMPKK          H   1C   0    0    0G    200      6000     1000        1
 1.65326226E+00 1.00263099E-02-3.31661238E-06 5.36483138E-10-3.14696758E-14    2
-1.00095936E+04 9.90506283E+00 5.14911468E+00-1.36622009E-02 4.91453921E-05    3
-4.84246767E-08 1.66603441E-11-1.02465983E+04-4.63848842E+00 0.00000000E+00    4
AMPK_ADP_AMPKK          H   1C   0    0    0G    200      6000     1000        1
 1.65326226E+00 1.00263099E-02-3.31661238E-06 5.36483138E-10-3.14696758E-14    2
-1.00095936E+04 9.90506283E+00 5.14911468E+00-1.36622009E-02 4.91453921E-05    3
-4.84246767E-08 1.66603441E-11-1.02465983E+04-4.63848842E+00 0.00000000E+00    4
AMPK_AMP_AMPKK          H   1C   0    0    0G    200      6000     1000        1
 1.65326226E+00 1.00263099E-02-3.31661238E-06 5.36483138E-10-3.14696758E-14    2
-1.00095936E+04 9.90506283E+00 5.14911468E+00-1.36622009E-02 4.91453921E-05    3
-4.84246767E-08 1.66603441E-11-1.02465983E+04-4.63848842E+00 0.00000000E+00    4
AMPKP_APHOS             H   1C   0    0    0G    200      6000     1000        1
 1.65326226E+00 1.00263099E-02-3.31661238E-06 5.36483138E-10-3.14696758E-14    2
-1.00095936E+04 9.90506283E+00 5.14911468E+00-1.36622009E-02 4.91453921E-05    3
-4.84246767E-08 1.66603441E-11-1.02465983E+04-4.63848842E+00 0.00000000E+00    4
AMPKP_ATP_APHOS         H   1C   0    0    0G    200      6000     1000        1
 1.65326226E+00 1.00263099E-02-3.31661238E-06 5.36483138E-10-3.14696758E-14    2
-1.00095936E+04 9.90506283E+00 5.14911468E+00-1.36622009E-02 4.91453921E-05    3
-4.84246767E-08 1.66603441E-11-1.02465983E+04-4.63848842E+00 0.00000000E+00    4
AMPKP_ADP_APHOS         H   1C   0    0    0G    200      6000     1000        1
 1.65326226E+00 1.00263099E-02-3.31661238E-06 5.36483138E-10-3.14696758E-14    2
-1.00095936E+04 9.90506283E+00 5.14911468E+00-1.36622009E-02 4.91453921E-05    3
-4.84246767E-08 1.66603441E-11-1.02465983E+04-4.63848842E+00 0.00000000E+00    4
AMPKP_AMP_APHOS         H   1C   0    0    0G    200      6000     1000        1
 1.65326226E+00 1.00263099E-02-3.31661238E-06 5.36483138E-10-3.14696758E-14    2
-1.00095936E+04 9.90506283E+00 5.14911468E+00-1.36622009E-02 4.91453921E-05    3
-4.84246767E-08 1.66603441E-11-1.02465983E+04-4.63848842E+00 0.00000000E+00    4
GLUCOUT                 H   1C   0    0    0G    200      6000     1000        1
 1.65326226E+00 1.00263099E-02-3.31661238E-06 5.36483138E-10-3.14696758E-14    2
-1.00095936E+04 9.90506283E+00 5.14911468E+00-1.36622009E-02 4.91453921E-05    3
-4.84246767E-08 1.66603441E-11-1.02465983E+04-4.63848842E+00 0.00000000E+00    4
GLUT1                   H   1C   0    0    0G    200      6000     1000        1
 1.65326226E+00 1.00263099E-02-3.31661238E-06 5.36483138E-10-3.14696758E-14    2
-1.00095936E+04 9.90506283E+00 5.14911468E+00-1.36622009E-02 4.91453921E-05    3
-4.84246767E-08 1.66603441E-11-1.02465983E+04-4.63848842E+00 0.00000000E+00    4
GLUCIN                  H   1C   0    0    0G    200      6000     1000        1
 1.65326226E+00 1.00263099E-02-3.31661238E-06 5.36483138E-10-3.14696758E-14    2
-1.00095936E+04 9.90506283E+00 5.14911468E+00-1.36622009E-02 4.91453921E-05    3
-4.84246767E-08 1.66603441E-11-1.02465983E+04-4.63848842E+00 0.00000000E+00    4
GLUT1_GLUCOUT           H   1C   0    0    0G    200      6000     1000        1
 1.65326226E+00 1.00263099E-02-3.31661238E-06 5.36483138E-10-3.14696758E-14    2
-1.00095936E+04 9.90506283E+00 5.14911468E+00-1.36622009E-02 4.91453921E-05    3
-4.84246767E-08 1.66603441E-11-1.02465983E+04-4.63848842E+00 0.00000000E+00    4
GLUT1_GLUCIN            H   1C   0    0    0G    200      6000     1000        1
 1.65326226E+00 1.00263099E-02-3.31661238E-06 5.36483138E-10-3.14696758E-14    2
-1.00095936E+04 9.90506283E+00 5.14911468E+00-1.36622009E-02 4.91453921E-05    3
-4.84246767E-08 1.66603441E-11-1.02465983E+04-4.63848842E+00 0.00000000E+00    4
REF                     H   1C   0    0    0G    200      6000     1000        1
 1.65326226E+00 1.00263099E-02-3.31661238E-06 5.36483138E-10-3.14696758E-14    2
-1.00095936E+04 9.90506283E+00 5.14911468E+00-1.36622009E-02 4.91453921E-05    3
-4.84246767E-08 1.66603441E-11-1.02465983E+04-4.63848842E+00 0.00000000E+00    4
END
REACTIONS MOLES KELVINS

! -------------------- Zhou2022 --------------------
! GLUCOSE Transport Module
GLUT1 + GLUCOUT => GLUT1_GLUCOUT + REF            1.28E+06  0.00000         0.00
GLUT1_GLUCOUT + REF => GLUT1 + GLUCOUT            0.833          0.00000         0.00
GLUT1_GLUCOUT + REF => GLUT1 + GLUCIN             0.833         0.00000         0.00
! Efflux
GLUT1 + GLUCIN => GLUT1_GLUCIN + REF              1.28E+06  0.00000         0.00
GLUT1_GLUCIN + REF => GLUT1 + GLUCIN              0.833          0.00000         0.00
GLUT1_GLUCIN + REF => GLUT1 + GLUCOUT             0.833         0.00000         0.00
! GLUCOSE-AXP Module
GLUCIN + ADP => PYRUVATE + ATP                   3.33E+07  0.00000         0.00 !elso lepes k-ja mervado --> masodik egy nagysagrenddel gyorsabbra allitva
PYRUVATE + ADP => REF + ATP                       3.33E+07  0.00000         0.00
ATP => ADP                                        2.6E-02     0.00000         0.00 ! k_rest coccimigliio2020
2 ADP => ATP + AMP                                1.67E+07     0.00000         0.00
ATP + AMP => 2 ADP                                1.67E+07     0.00000         0.00
! -------------------- Coccimiglio2020 --------------------
! ------- AMPK-AXP complexes -------
ATP + AMPK => AMPK_ATP + REF                      1E+06     0.00000         0.00 !k6f, Coccimiglio IF, Clarke DC (2020) ADP is the dominant controller of AMP-activated protein kinase activity dynamics in skeletal muscle during exercise. PLoS Comput Biol 16(7): e1008079
AMPK_ATP + REF => ATP + AMPK                      2.2E-01     0.00000         0.00 !k6r, Coccimiglio IF, Clarke DC (2020) ADP is the dominant controller of AMP-activated protein kinase activity dynamics in skeletal muscle during exercise. PLoS Comput Biol 16(7): e1008079
ADP + AMPK => AMPK_ADP + REF                      1.5E+06     0.00000         0.00 !k7f, Coccimiglio IF, Clarke DC (2020) ADP is the dominant controller of AMP-activated protein kinase activity dynamics in skeletal muscle during exercise. PLoS Comput Biol 16(7): e1008079
AMPK_ADP + REF => ADP + AMPK                      2.25E-03     0.00000         0.00 !k7r, Coccimiglio IF, Clarke DC (2020) ADP is the dominant controller of AMP-activated protein kinase activity dynamics in skeletal muscle during exercise. PLoS Comput Biol 16(7): e1008079
AMP + AMPK => AMPK_AMP + REF                      1.5E+06     0.00000         0.00 !k8f, Coccimiglio IF, Clarke DC (2020) ADP is the dominant controller of AMP-activated protein kinase activity dynamics in skeletal muscle during exercise. PLoS Comput Biol 16(7): e1008079
AMPK_AMP + REF => AMP + AMPK                      3.75E-03     0.00000         0.00 !k8r, Coccimiglio IF, Clarke DC (2020) ADP is the dominant controller of AMP-activated protein kinase activity dynamics in skeletal muscle during exercise. PLoS Comput Biol 16(7): e1008079
! ------- AMPKP-AXP complexes -------
ATP + AMPKP => AMPKP_ATP + REF                    1E+06     0.00000         0.00 !k6f, Coccimiglio IF, Clarke DC (2020) ADP is the dominant controller of AMP-activated protein kinase activity dynamics in skeletal muscle during exercise. PLoS Comput Biol 16(7): e1008079
AMPKP_ATP + REF => ATP + AMPKP                    4E-01     0.00000         0.00 !k6r, Coccimiglio IF, Clarke DC (2020) ADP is the dominant controller of AMP-activated protein kinase activity dynamics in skeletal muscle during exercise. PLoS Comput Biol 16(7): e1008079
ADP + AMPKP => AMPKP_ADP + REF                    1.5E+06     0.00000         0.00 !k7f, Coccimiglio IF, Clarke DC (2020) ADP is the dominant controller of AMP-activated protein kinase activity dynamics in skeletal muscle during exercise. PLoS Comput Biol 16(7): e1008079
AMPKP_ADP + REF => ADP + AMPKP                    2.25E-03     0.00000         0.00 !k7r, Coccimiglio IF, Clarke DC (2020) ADP is the dominant controller of AMP-activated protein kinase activity dynamics in skeletal muscle during exercise. PLoS Comput Biol 16(7): e1008079
AMP + AMPKP => AMPKP_AMP + REF                    1E+06     0.00000         0.00 !k8f, Coccimiglio IF, Clarke DC (2020) ADP is the dominant controller of AMP-activated protein kinase activity dynamics in skeletal muscle during exercise. PLoS Comput Biol 16(7): e1008079
AMPKP_AMP + REF => AMP + AMPKP                    3.75E-03     0.00000         0.00 !k8r, Coccimiglio IF, Clarke DC (2020) ADP is the dominant controller of AMP-activated protein kinase activity dynamics in skeletal muscle during exercise. PLoS Comput Biol 16(7): e1008079
! ------- AMPK Phosphorylation -------
AMPK + AMPKK => AMPK_AMPKK + REF                  3.61E+06     0.00000         0.00
AMPK_AMPKK + REF => AMPK + AMPKK                  5E+03     0.00000         0.00
AMPK_AMPKK + REF => AMPKP + AMPKK                 5E+01     0.00000         0.00
! ------- AMPKP Dephosphorylation -------
AMPKP + APHOS => AMPKP_APHOS + REF                8.21E+06     0.00000         0.00
AMPKP_APHOS + REF => AMPKP + APHOS                5E+02     0.00000         0.00
AMPKP_APHOS + REF => AMPK + APHOS                 5E+01     0.00000         0.00
! ------- AMPK_ATP Phosphorylation -------
AMPK_ATP + AMPKK => AMPK_ATP_AMPKK + REF          3.61E+06     0.00000         0.00
AMPK_ATP_AMPKK + REF => AMPK_ATP + AMPKK          5E+03     0.00000         0.00
AMPK_ATP_AMPKK + REF => AMPKP_ATP + AMPKK         5E+01
! ------- AMPKP_ATP Dephosphorylation -------
AMPKP_ATP + APHOS => AMPKP_ATP_APHOS + REF        8.21E+06     0.00000         0.00
AMPKP_ATP_APHOS + REF => AMPKP_ATP + APHOS        5E+02     0.00000         0.00
AMPKP_ATP_APHOS + REF => AMPK_ATP + APHOS         5E+01     0.00000         0.00
! ------- AMPK_ADP Phosphorylation -------
AMPK_ADP + AMPKK => AMPK_ADP_AMPKK + REF          5.41E+06     0.00000         0.00
AMPK_ADP_AMPKK + REF => AMPK_ADP + AMPKK          7.5E+03     0.00000         0.00
AMPK_ADP_AMPKK + REF => AMPKP_ADP + AMPKK         7.5E+01
! ------- AMPKP_ADP Dephosphorylation -------
AMPKP_ADP + APHOS => AMPKP_ADP_APHOS + REF        8.21E+04     0.00000         0.00
AMPKP_ADP_APHOS + REF => AMPKP_ADP + APHOS        5E+00     0.00000         0.00
AMPKP_ADP_APHOS + REF => AMPK_ADP + APHOS         1E+00     0.00000         0.00
! ------- AMPK_AMP Phosphorylation -------
AMPK_AMP + AMPKK => AMPK_AMP_AMPKK + REF          1.44E+07     0.00000         0.00
AMPK_AMP_AMPKK + REF => AMPK_AMP + AMPKK          2E+04     0.00000         0.00
AMPK_AMP_AMPKK + REF => AMPKP_AMP + AMPKK         2E+02
! ------- AMPKP_AMP Dephosphorylation -------
AMPKP_AMP + APHOS => AMPKP_AMP_APHOS + REF        8.21E+04     0.00000         0.00
AMPKP_AMP_APHOS + REF => AMPKP_AMP + APHOS        5E+00     0.00000         0.00
AMPKP_AMP_APHOS + REF => AMPK_ATP + APHOS         1E+00     0.00000         0.00
END