!changes 2024.11.01. Zita - Krisztián


ELEMENTS
C H
END

SPECIES
GLUCOSE ATP ADP AMP AMPK_ATP AMPK AMPKA REF
END

THERMO ALL
300.000000 1000.000000 5000.000000
GLUCOSE                 H   1C   0    0    0G    200      6000     1000        1
 1.65326226E+00 1.00263099E-02-3.31661238E-06 5.36483138E-10-3.14696758E-14    2
-1.00095936E+04 9.90506283E+00 5.14911468E+00-1.36622009E-02 4.91453921E-05    3
-4.84246767E-08 1.66603441E-11-1.02465983E+04-4.63848842E+00 0.00000000E+00    4
ATP                     H   1C   0    0    0G    200      6000     1000        1
 1.65326226E+00 1.00263099E-02-3.31661238E-06 5.36483138E-10-3.14696758E-14    2
-1.00095936E+04 9.90506283E+00 5.14911468E+00-1.36622009E-02 4.91453921E-05    3
-4.84246767E-08 1.66603441E-11-1.02465983E+04-4.63848842E+00 0.00000000E+00    4
ADP                     H   1C   0    0    0G    200      6000     1000        1
 1.65326226E+00 1.00263099E-02-3.31661238E-06 5.36483138E-10-3.14696758E-14    2
-1.00095936E+04 9.90506283E+00 5.14911468E+00-1.36622009E-02 4.91453921E-05    3
-4.84246767E-08 1.66603441E-11-1.02465983E+04-4.63848842E+00 0.00000000E+00    4
AMP                     H   1C   0    0    0G    200      6000     1000        1
 1.65326226E+00 1.00263099E-02-3.31661238E-06 5.36483138E-10-3.14696758E-14    2
-1.00095936E+04 9.90506283E+00 5.14911468E+00-1.36622009E-02 4.91453921E-05    3
-4.84246767E-08 1.66603441E-11-1.02465983E+04-4.63848842E+00 0.00000000E+00    4
AMPK_ATP                H   1C   0    0    0G    200      6000     1000        1
 1.65326226E+00 1.00263099E-02-3.31661238E-06 5.36483138E-10-3.14696758E-14    2
-1.00095936E+04 9.90506283E+00 5.14911468E+00-1.36622009E-02 4.91453921E-05    3
-4.84246767E-08 1.66603441E-11-1.02465983E+04-4.63848842E+00 0.00000000E+00    4
AMPK                    H   1C   0    0    0G    200      6000     1000        1
 1.65326226E+00 1.00263099E-02-3.31661238E-06 5.36483138E-10-3.14696758E-14    2
-1.00095936E+04 9.90506283E+00 5.14911468E+00-1.36622009E-02 4.91453921E-05    3
-4.84246767E-08 1.66603441E-11-1.02465983E+04-4.63848842E+00 0.00000000E+00    4
AMPKA                   H   1C   0    0    0G    200      6000     1000        1
 1.65326226E+00 1.00263099E-02-3.31661238E-06 5.36483138E-10-3.14696758E-14    2
-1.00095936E+04 9.90506283E+00 5.14911468E+00-1.36622009E-02 4.91453921E-05    3
-4.84246767E-08 1.66603441E-11-1.02465983E+04-4.63848842E+00 0.00000000E+00    4
REF                     H   1C   0    0    0G    200      6000     1000        1
 1.65326226E+00 1.00263099E-02-3.31661238E-06 5.36483138E-10-3.14696758E-14    2
-1.00095936E+04 9.90506283E+00 5.14911468E+00-1.36622009E-02 4.91453921E-05    3
-4.84246767E-08 1.66603441E-11-1.02465983E+04-4.63848842E+00 0.00000000E+00    4
END
REACTIONS MOLES KELVINS

! Matlab cikk reakcioi
! R0001
GLUCOSE+ADP=>2 ATP                1.6661E+01  0.00000         0.00
! R0002
ATP=>ADP                            1.4E+00     0.00000         0.00
! R2234
2 ADP=>ATP+AMP                       1.6E-02     0.00000         0.00
! R1234
ATP+AMP=>2 ADP                       1.6E-02     0.00000         0.00
! Innentol Izmos cikk reakcioi
! R5434
ATP+AMPK=>AMPK_ATP + REF              1E+00     0.00000         0.00
! R5434
AMPK_ATP + REF=>ATP+AMPK              2.2E-01     0.00000         0.00
! R5434
ADP+AMPK=>AMPKA + REF              1.5E+01     0.00000         0.00
! R5434
AMPKA + REF=>ADP+AMPK              2.25E-13     0.00000         0.00
! R5434
AMP+AMPK=>AMPKA + REF              2.5E+02     0.00000         0.00
! R5434
AMPKA + REF=>AMP+AMPK              3.75E-13     0.00000         0.00
END
