!changes 2024.11.01. Zita - Krisztián


ELEMENTS
C H
END

SPECIES
GLUCOSE ATP ADP AMP PYRUVATE REF
END

THERMO ALL
300.000000 1000.000000 5000.000000
GLUCOSE                 H   1C   0    0    0G    200      6000     1000        1
 1.65326226E+00 1.00263099E-02-3.31661238E-06 5.36483138E-10-3.14696758E-14    2
-1.00095936E+04 9.90506283E+00 5.14911468E+00-1.36622009E-02 4.91453921E-05    3
-4.84246767E-08 1.66603441E-11-1.02465983E+04-4.63848842E+00 0.00000000E+00    4
ATP                     H   1C   0    0    0G    200      6000     1000        1
 1.65326226E+00 1.00263099E-02-3.31661238E-06 5.36483138E-10-3.14696758E-14    2
-1.00095936E+04 9.90506283E+00 5.14911468E+00-1.36622009E-02 4.91453921E-05    3
-4.84246767E-08 1.66603441E-11-1.02465983E+04-4.63848842E+00 0.00000000E+00    4
ADP                     H   1C   0    0    0G    200      6000     1000        1
 1.65326226E+00 1.00263099E-02-3.31661238E-06 5.36483138E-10-3.14696758E-14    2
-1.00095936E+04 9.90506283E+00 5.14911468E+00-1.36622009E-02 4.91453921E-05    3
-4.84246767E-08 1.66603441E-11-1.02465983E+04-4.63848842E+00 0.00000000E+00    4
AMP                     H   1C   0    0    0G    200      6000     1000        1
 1.65326226E+00 1.00263099E-02-3.31661238E-06 5.36483138E-10-3.14696758E-14    2
-1.00095936E+04 9.90506283E+00 5.14911468E+00-1.36622009E-02 4.91453921E-05    3
-4.84246767E-08 1.66603441E-11-1.02465983E+04-4.63848842E+00 0.00000000E+00    4
PYRUVATE                H   1C   0    0    0G    200      6000     1000        1
 1.65326226E+00 1.00263099E-02-3.31661238E-06 5.36483138E-10-3.14696758E-14    2
-1.00095936E+04 9.90506283E+00 5.14911468E+00-1.36622009E-02 4.91453921E-05    3
-4.84246767E-08 1.66603441E-11-1.02465983E+04-4.63848842E+00 0.00000000E+00    4
REF                     H   1C   0    0    0G    200      6000     1000        1
 1.65326226E+00 1.00263099E-02-3.31661238E-06 5.36483138E-10-3.14696758E-14    2
-1.00095936E+04 9.90506283E+00 5.14911468E+00-1.36622009E-02 4.91453921E-05    3
-4.84246767E-08 1.66603441E-11-1.02465983E+04-4.63848842E+00 0.00000000E+00    4
END
REACTIONS MOLES KELVINS

! Matlab cikk reakcioi
! R0001
GLUCOSE+ADP=>PYRUVATE + ATP                3.33E+07  0.00000         0.00 !elso lepes k-ja mervado --> masodik egy nagysagrenddel gyorsabbra allitva
PYRUVATE+ADP=> REF + ATP                3.33E+07  0.00000         0.00
!REF + GLUCOSE => 30 ATP                       3.33E+02 !OXIDATIVE PHOSPHORYLATION
ATP=>ADP                            2.6-02     0.00000         0.00 ! coccimiglio2020
! R0003
2 ADP=>ATP+AMP                       1.67E+07     0.00000         0.00
! R0004
ATP+AMP=>2 ADP                       1.67E+07     0.00000         0.00
END
