ELEMENTS
C H
END

SPECIES
PYRUVATE
ATP ADP AMP
AMPK AMPKK PP2A
AMPK_ATP AMPK_ADP AMPK_AMP
AMPKA AMPKA_ATP AMPKA_ADP AMPKA_AMP
AMPK_AMPKK AMPK_ATP_AMPKK AMPK_ADP_AMPKK AMPK_AMP_AMPKK
AMPKA_PP2A AMPKA_ATP_PP2A AMPKA_ADP_PP2A AMPKA_AMP_PP2A
GLUCOUT GLUT1 GLUCIN GLUT1_GLUCOUT GLUT1_GLUCIN
REF
END

THERMO ALL
300.000000 1000.000000 5000.000000
PYRUVATE                H   1C   0    0    0G    200      6000     1000        1
 1.65326226E+00 1.00263099E-02-3.31661238E-06 5.36483138E-10-3.14696758E-14    2
-1.00095936E+04 9.90506283E+00 5.14911468E+00-1.36622009E-02 4.91453921E-05    3
-4.84246767E-08 1.66603441E-11-1.02465983E+04-4.63848842E+00 0.00000000E+00    4
ATP                     H   1C   0    0    0G    200      6000     1000        1
 1.65326226E+00 1.00263099E-02-3.31661238E-06 5.36483138E-10-3.14696758E-14    2
-1.00095936E+04 9.90506283E+00 5.14911468E+00-1.36622009E-02 4.91453921E-05    3
-4.84246767E-08 1.66603441E-11-1.02465983E+04-4.63848842E+00 0.00000000E+00    4
ADP                     H   1C   0    0    0G    200      6000     1000        1
 1.65326226E+00 1.00263099E-02-3.31661238E-06 5.36483138E-10-3.14696758E-14    2
-1.00095936E+04 9.90506283E+00 5.14911468E+00-1.36622009E-02 4.91453921E-05    3
-4.84246767E-08 1.66603441E-11-1.02465983E+04-4.63848842E+00 0.00000000E+00    4
AMP                     H   1C   0    0    0G    200      6000     1000        1
 1.65326226E+00 1.00263099E-02-3.31661238E-06 5.36483138E-10-3.14696758E-14    2
-1.00095936E+04 9.90506283E+00 5.14911468E+00-1.36622009E-02 4.91453921E-05    3
-4.84246767E-08 1.66603441E-11-1.02465983E+04-4.63848842E+00 0.00000000E+00    4
AMPK                    H   1C   0    0    0G    200      6000     1000        1
 1.65326226E+00 1.00263099E-02-3.31661238E-06 5.36483138E-10-3.14696758E-14    2
-1.00095936E+04 9.90506283E+00 5.14911468E+00-1.36622009E-02 4.91453921E-05    3
-4.84246767E-08 1.66603441E-11-1.02465983E+04-4.63848842E+00 0.00000000E+00    4
AMPKK                   H   1C   0    0    0G    200      6000     1000        1
 1.65326226E+00 1.00263099E-02-3.31661238E-06 5.36483138E-10-3.14696758E-14    2
-1.00095936E+04 9.90506283E+00 5.14911468E+00-1.36622009E-02 4.91453921E-05    3
-4.84246767E-08 1.66603441E-11-1.02465983E+04-4.63848842E+00 0.00000000E+00    4
PP2A                    H   1C   0    0    0G    200      6000     1000        1
 1.65326226E+00 1.00263099E-02-3.31661238E-06 5.36483138E-10-3.14696758E-14    2
-1.00095936E+04 9.90506283E+00 5.14911468E+00-1.36622009E-02 4.91453921E-05    3
-4.84246767E-08 1.66603441E-11-1.02465983E+04-4.63848842E+00 0.00000000E+00    4
AMPK_ATP                H   1C   0    0    0G    200      6000     1000        1
 1.65326226E+00 1.00263099E-02-3.31661238E-06 5.36483138E-10-3.14696758E-14    2
-1.00095936E+04 9.90506283E+00 5.14911468E+00-1.36622009E-02 4.91453921E-05    3
-4.84246767E-08 1.66603441E-11-1.02465983E+04-4.63848842E+00 0.00000000E+00    4
AMPK_ADP                H   1C   0    0    0G    200      6000     1000        1
 1.65326226E+00 1.00263099E-02-3.31661238E-06 5.36483138E-10-3.14696758E-14    2
-1.00095936E+04 9.90506283E+00 5.14911468E+00-1.36622009E-02 4.91453921E-05    3
-4.84246767E-08 1.66603441E-11-1.02465983E+04-4.63848842E+00 0.00000000E+00    4
AMPK_AMP                H   1C   0    0    0G    200      6000     1000        1
 1.65326226E+00 1.00263099E-02-3.31661238E-06 5.36483138E-10-3.14696758E-14    2
-1.00095936E+04 9.90506283E+00 5.14911468E+00-1.36622009E-02 4.91453921E-05    3
-4.84246767E-08 1.66603441E-11-1.02465983E+04-4.63848842E+00 0.00000000E+00    4
AMPKA                   H   1C   0    0    0G    200      6000     1000        1
 1.65326226E+00 1.00263099E-02-3.31661238E-06 5.36483138E-10-3.14696758E-14    2
-1.00095936E+04 9.90506283E+00 5.14911468E+00-1.36622009E-02 4.91453921E-05    3
-4.84246767E-08 1.66603441E-11-1.02465983E+04-4.63848842E+00 0.00000000E+00    4
AMPKA_ATP               H   1C   0    0    0G    200      6000     1000        1
 1.65326226E+00 1.00263099E-02-3.31661238E-06 5.36483138E-10-3.14696758E-14    2
-1.00095936E+04 9.90506283E+00 5.14911468E+00-1.36622009E-02 4.91453921E-05    3
-4.84246767E-08 1.66603441E-11-1.02465983E+04-4.63848842E+00 0.00000000E+00    4
AMPKA_ADP               H   1C   0    0    0G    200      6000     1000        1
 1.65326226E+00 1.00263099E-02-3.31661238E-06 5.36483138E-10-3.14696758E-14    2
-1.00095936E+04 9.90506283E+00 5.14911468E+00-1.36622009E-02 4.91453921E-05    3
-4.84246767E-08 1.66603441E-11-1.02465983E+04-4.63848842E+00 0.00000000E+00    4
AMPKA_AMP               H   1C   0    0    0G    200      6000     1000        1
 1.65326226E+00 1.00263099E-02-3.31661238E-06 5.36483138E-10-3.14696758E-14    2
-1.00095936E+04 9.90506283E+00 5.14911468E+00-1.36622009E-02 4.91453921E-05    3
-4.84246767E-08 1.66603441E-11-1.02465983E+04-4.63848842E+00 0.00000000E+00    4
AMPK_AMPKK              H   1C   0    0    0G    200      6000     1000        1
 1.65326226E+00 1.00263099E-02-3.31661238E-06 5.36483138E-10-3.14696758E-14    2
-1.00095936E+04 9.90506283E+00 5.14911468E+00-1.36622009E-02 4.91453921E-05    3
-4.84246767E-08 1.66603441E-11-1.02465983E+04-4.63848842E+00 0.00000000E+00    4
AMPK_ATP_AMPKK          H   1C   0    0    0G    200      6000     1000        1
 1.65326226E+00 1.00263099E-02-3.31661238E-06 5.36483138E-10-3.14696758E-14    2
-1.00095936E+04 9.90506283E+00 5.14911468E+00-1.36622009E-02 4.91453921E-05    3
-4.84246767E-08 1.66603441E-11-1.02465983E+04-4.63848842E+00 0.00000000E+00    4
AMPK_ADP_AMPKK          H   1C   0    0    0G    200      6000     1000        1
 1.65326226E+00 1.00263099E-02-3.31661238E-06 5.36483138E-10-3.14696758E-14    2
-1.00095936E+04 9.90506283E+00 5.14911468E+00-1.36622009E-02 4.91453921E-05    3
-4.84246767E-08 1.66603441E-11-1.02465983E+04-4.63848842E+00 0.00000000E+00    4
AMPK_AMP_AMPKK          H   1C   0    0    0G    200      6000     1000        1
 1.65326226E+00 1.00263099E-02-3.31661238E-06 5.36483138E-10-3.14696758E-14    2
-1.00095936E+04 9.90506283E+00 5.14911468E+00-1.36622009E-02 4.91453921E-05    3
-4.84246767E-08 1.66603441E-11-1.02465983E+04-4.63848842E+00 0.00000000E+00    4
AMPKA_PP2A              H   1C   0    0    0G    200      6000     1000        1
 1.65326226E+00 1.00263099E-02-3.31661238E-06 5.36483138E-10-3.14696758E-14    2
-1.00095936E+04 9.90506283E+00 5.14911468E+00-1.36622009E-02 4.91453921E-05    3
-4.84246767E-08 1.66603441E-11-1.02465983E+04-4.63848842E+00 0.00000000E+00    4
AMPKA_ATP_PP2A          H   1C   0    0    0G    200      6000     1000        1
 1.65326226E+00 1.00263099E-02-3.31661238E-06 5.36483138E-10-3.14696758E-14    2
-1.00095936E+04 9.90506283E+00 5.14911468E+00-1.36622009E-02 4.91453921E-05    3
-4.84246767E-08 1.66603441E-11-1.02465983E+04-4.63848842E+00 0.00000000E+00    4
AMPKA_ADP_PP2A          H   1C   0    0    0G    200      6000     1000        1
 1.65326226E+00 1.00263099E-02-3.31661238E-06 5.36483138E-10-3.14696758E-14    2
-1.00095936E+04 9.90506283E+00 5.14911468E+00-1.36622009E-02 4.91453921E-05    3
-4.84246767E-08 1.66603441E-11-1.02465983E+04-4.63848842E+00 0.00000000E+00    4
AMPKA_AMP_PP2A          H   1C   0    0    0G    200      6000     1000        1
 1.65326226E+00 1.00263099E-02-3.31661238E-06 5.36483138E-10-3.14696758E-14    2
-1.00095936E+04 9.90506283E+00 5.14911468E+00-1.36622009E-02 4.91453921E-05    3
-4.84246767E-08 1.66603441E-11-1.02465983E+04-4.63848842E+00 0.00000000E+00    4
GLUCOUT                 H   1C   0    0    0G    200      6000     1000        1
 1.65326226E+00 1.00263099E-02-3.31661238E-06 5.36483138E-10-3.14696758E-14    2
-1.00095936E+04 9.90506283E+00 5.14911468E+00-1.36622009E-02 4.91453921E-05    3
-4.84246767E-08 1.66603441E-11-1.02465983E+04-4.63848842E+00 0.00000000E+00    4
GLUT1                   H   1C   0    0    0G    200      6000     1000        1
 1.65326226E+00 1.00263099E-02-3.31661238E-06 5.36483138E-10-3.14696758E-14    2
-1.00095936E+04 9.90506283E+00 5.14911468E+00-1.36622009E-02 4.91453921E-05    3
-4.84246767E-08 1.66603441E-11-1.02465983E+04-4.63848842E+00 0.00000000E+00    4
GLUCIN                  H   1C   0    0    0G    200      6000     1000        1
 1.65326226E+00 1.00263099E-02-3.31661238E-06 5.36483138E-10-3.14696758E-14    2
-1.00095936E+04 9.90506283E+00 5.14911468E+00-1.36622009E-02 4.91453921E-05    3
-4.84246767E-08 1.66603441E-11-1.02465983E+04-4.63848842E+00 0.00000000E+00    4
GLUT1_GLUCOUT           H   1C   0    0    0G    200      6000     1000        1
 1.65326226E+00 1.00263099E-02-3.31661238E-06 5.36483138E-10-3.14696758E-14    2
-1.00095936E+04 9.90506283E+00 5.14911468E+00-1.36622009E-02 4.91453921E-05    3
-4.84246767E-08 1.66603441E-11-1.02465983E+04-4.63848842E+00 0.00000000E+00    4
GLUT1_GLUCIN            H   1C   0    0    0G    200      6000     1000        1
 1.65326226E+00 1.00263099E-02-3.31661238E-06 5.36483138E-10-3.14696758E-14    2
-1.00095936E+04 9.90506283E+00 5.14911468E+00-1.36622009E-02 4.91453921E-05    3
-4.84246767E-08 1.66603441E-11-1.02465983E+04-4.63848842E+00 0.00000000E+00    4
REF                     H   1C   0    0    0G    200      6000     1000        1
 1.65326226E+00 1.00263099E-02-3.31661238E-06 5.36483138E-10-3.14696758E-14    2
-1.00095936E+04 9.90506283E+00 5.14911468E+00-1.36622009E-02 4.91453921E-05    3
-4.84246767E-08 1.66603441E-11-1.02465983E+04-4.63848842E+00 0.00000000E+00    4
END
REACTIONS MOLES KELVINS

! -------------------- Zhou2022 --------------------
! GLUCOSE Transport Module
GLUT1 + GLUCOUT => GLUT1_GLUCOUT + REF            1.28E+06     0.00000         0.00 !1.28E+06
GLUT1_GLUCOUT + REF => GLUT1 + GLUCOUT            1.553        0.00000         0.00 !0.0555   ! K_in MM constant = 1.3 [mM]
GLUT1_GLUCOUT + REF => GLUT1 + GLUCIN             0.111        0.00000         0.00 !0.111   
! Efflux
GLUT1 + GLUCIN => GLUT1_GLUCIN + REF              1.28E+06     0.00000         0.00 !1.28E+06
GLUT1_GLUCIN + REF => GLUT1 + GLUCIN              1.553        0.00000         0.00 !0.0555  
GLUT1_GLUCIN + REF => GLUT1 + GLUCOUT             0.111        0.00000         0.00 !0.111   
! GLUCOSE-AXP Module
GLUCIN + ADP => PYRUVATE + ATP                    2E+06     0.00000            0.00 !3.33E+07 !elso lepes k-ja mervado --> masodik egy nagysagrenddel gyorsabbra allitva
PYRUVATE + ADP => REF + ATP                       2E+06     0.00000            0.00 !3.33E+07
ATP => ADP                                        5E-04     0.00000            0.00 !2.6E-02  ! k_rest coccimigliio2020
2 ADP => ATP + AMP                                1E+05     0.00000            0.00 !1.67E+07
ATP + AMP => 2 ADP                                1E+05     0.00000            0.00 !1.67E+07
! -------------------- Coccimiglio2020 --------------------
! ------- AMPK-AXP complexes -------
ATP + AMPK => AMPK_ATP + REF                      1E+06     0.00000         0.00 !k6f, Coccimiglio IF, Clarke DC (2020) ADP is the dominant controller of AMP-activated protein kinase activity dynamics in skeletal muscle during exercise. PLoS Comput Biol 16(7): e1008079
AMPK_ATP + REF => ATP + AMPK                      2.2E-01     0.00000         0.00 !k6r, Coccimiglio IF, Clarke DC (2020) ADP is the dominant controller of AMP-activated protein kinase activity dynamics in skeletal muscle during exercise. PLoS Comput Biol 16(7): e1008079
ADP + AMPK => AMPK_ADP + REF                      1.5E+06     0.00000         0.00 !k7f, Coccimiglio IF, Clarke DC (2020) ADP is the dominant controller of AMP-activated protein kinase activity dynamics in skeletal muscle during exercise. PLoS Comput Biol 16(7): e1008079
AMPK_ADP + REF => ADP + AMPK                      2.25E-03     0.00000         0.00 !k7r, Coccimiglio IF, Clarke DC (2020) ADP is the dominant controller of AMP-activated protein kinase activity dynamics in skeletal muscle during exercise. PLoS Comput Biol 16(7): e1008079
AMP + AMPK => AMPK_AMP + REF                      1.5E+06     0.00000         0.00 !k8f, Coccimiglio IF, Clarke DC (2020) ADP is the dominant controller of AMP-activated protein kinase activity dynamics in skeletal muscle during exercise. PLoS Comput Biol 16(7): e1008079
AMPK_AMP + REF => AMP + AMPK                      3.75E-03     0.00000         0.00 !k8r, Coccimiglio IF, Clarke DC (2020) ADP is the dominant controller of AMP-activated protein kinase activity dynamics in skeletal muscle during exercise. PLoS Comput Biol 16(7): e1008079
! ------- AMPKA-AXP complexes -------
ATP + AMPKA => AMPKA_ATP + REF                    1E+06     0.00000         0.00 !k6f, Coccimiglio IF, Clarke DC (2020) ADP is the dominant controller of AMP-activated protein kinase activity dynamics in skeletal muscle during exercise. PLoS Comput Biol 16(7): e1008079
AMPKA_ATP + REF => ATP + AMPKA                    4E-01     0.00000         0.00 !k6r, Coccimiglio IF, Clarke DC (2020) ADP is the dominant controller of AMP-activated protein kinase activity dynamics in skeletal muscle during exercise. PLoS Comput Biol 16(7): e1008079
ADP + AMPKA => AMPKA_ADP + REF                    1.5E+06     0.00000         0.00 !k7f, Coccimiglio IF, Clarke DC (2020) ADP is the dominant controller of AMP-activated protein kinase activity dynamics in skeletal muscle during exercise. PLoS Comput Biol 16(7): e1008079
AMPKA_ADP + REF => ADP + AMPKA                    2.25E-03     0.00000         0.00 !k7r, Coccimiglio IF, Clarke DC (2020) ADP is the dominant controller of AMP-activated protein kinase activity dynamics in skeletal muscle during exercise. PLoS Comput Biol 16(7): e1008079
AMP + AMPKA => AMPKA_AMP + REF                    1E+06     0.00000         0.00 !k8f, Coccimiglio IF, Clarke DC (2020) ADP is the dominant controller of AMP-activated protein kinase activity dynamics in skeletal muscle during exercise. PLoS Comput Biol 16(7): e1008079
AMPKA_AMP + REF => AMP + AMPKA                    3.75E-03     0.00000         0.00 !k8r, Coccimiglio IF, Clarke DC (2020) ADP is the dominant controller of AMP-activated protein kinase activity dynamics in skeletal muscle during exercise. PLoS Comput Biol 16(7): e1008079
! ------- AMPK Phosphorylation -------
AMPK + AMPKK => AMPK_AMPKK + REF                  3.61E+06     0.00000         0.00
AMPK_AMPKK + REF => AMPK + AMPKK                  5E+03     0.00000         0.00
AMPK_AMPKK + REF => AMPKA + AMPKK                 5E+01     0.00000         0.00
! ------- AMPKA Dephosphorylation -------
AMPKA + PP2A => AMPKA_PP2A + REF                8.21E+06     0.00000         0.00
AMPKA_PP2A + REF => AMPKA + PP2A                5E+02     0.00000         0.00
AMPKA_PP2A + REF => AMPK + PP2A                 5E+01     0.00000         0.00
! ------- AMPK_ATP Phosphorylation -------
AMPK_ATP + AMPKK => AMPK_ATP_AMPKK + REF          3.61E+06     0.00000         0.00
AMPK_ATP_AMPKK + REF => AMPK_ATP + AMPKK          5E+03     0.00000         0.00
AMPK_ATP_AMPKK + REF => AMPKA_ATP + AMPKK         5E+01
! ------- AMPKA_ATP Dephosphorylation -------
AMPKA_ATP + PP2A => AMPKA_ATP_PP2A + REF        8.21E+06     0.00000         0.00 !8.21E+06
AMPKA_ATP_PP2A + REF => AMPKA_ATP + PP2A        5E+02     0.00000         0.00
AMPKA_ATP_PP2A + REF => AMPK_ATP + PP2A         5E+01     0.00000         0.00
! ------- AMPK_ADP Phosphorylation -------
AMPK_ADP + AMPKK => AMPK_ADP_AMPKK + REF          5.41E+06     0.00000         0.00
AMPK_ADP_AMPKK + REF => AMPK_ADP + AMPKK          7.5E+03     0.00000         0.00
AMPK_ADP_AMPKK + REF => AMPKA_ADP + AMPKK         7.5E+01
! ------- AMPKA_ADP Dephosphorylation -------
AMPKA_ADP + PP2A => AMPKA_ADP_PP2A + REF        8.21E+04     0.00000         0.00
AMPKA_ADP_PP2A + REF => AMPKA_ADP + PP2A        5E+00     0.00000         0.00
AMPKA_ADP_PP2A + REF => AMPK_ADP + PP2A         1E+00     0.00000         0.00
! ------- AMPK_AMP Phosphorylation -------
AMPK_AMP + AMPKK => AMPK_AMP_AMPKK + REF          1.44E+07     0.00000         0.00
AMPK_AMP_AMPKK + REF => AMPK_AMP + AMPKK          2E+04     0.00000         0.00
AMPK_AMP_AMPKK + REF => AMPKA_AMP + AMPKK         2E+02
! ------- AMPKA_AMP Dephosphorylation -------
AMPKA_AMP + PP2A => AMPKA_AMP_PP2A + REF        8.21E+04     0.00000         0.00
AMPKA_AMP_PP2A + REF => AMPKA_AMP + PP2A        5E+00     0.00000         0.00
AMPKA_AMP_PP2A + REF => AMPK_ATP + PP2A         1E+00     0.00000         0.00
END