!changes 2024.11.01. Zita - Krisztián


ELEMENTS
C H
END

SPECIES
GLUCOSE ATP ADP AMP AMPK_ATP AMPK_ADP AMPK_AMP AMPK PYRUVATE RAP MTORA RK FKBP12 RKMTORA RAPOUT REF
END

THERMO ALL
300.000000 1000.000000 5000.000000
GLUCOSE                 H   1C   0    0    0G    200      6000     1000        1
 1.65326226E+00 1.00263099E-02-3.31661238E-06 5.36483138E-10-3.14696758E-14    2
-1.00095936E+04 9.90506283E+00 5.14911468E+00-1.36622009E-02 4.91453921E-05    3
-4.84246767E-08 1.66603441E-11-1.02465983E+04-4.63848842E+00 0.00000000E+00    4
ATP                     H   1C   0    0    0G    200      6000     1000        1
 1.65326226E+00 1.00263099E-02-3.31661238E-06 5.36483138E-10-3.14696758E-14    2
-1.00095936E+04 9.90506283E+00 5.14911468E+00-1.36622009E-02 4.91453921E-05    3
-4.84246767E-08 1.66603441E-11-1.02465983E+04-4.63848842E+00 0.00000000E+00    4
ADP                     H   1C   0    0    0G    200      6000     1000        1
 1.65326226E+00 1.00263099E-02-3.31661238E-06 5.36483138E-10-3.14696758E-14    2
-1.00095936E+04 9.90506283E+00 5.14911468E+00-1.36622009E-02 4.91453921E-05    3
-4.84246767E-08 1.66603441E-11-1.02465983E+04-4.63848842E+00 0.00000000E+00    4
AMP                     H   1C   0    0    0G    200      6000     1000        1
 1.65326226E+00 1.00263099E-02-3.31661238E-06 5.36483138E-10-3.14696758E-14    2
-1.00095936E+04 9.90506283E+00 5.14911468E+00-1.36622009E-02 4.91453921E-05    3
-4.84246767E-08 1.66603441E-11-1.02465983E+04-4.63848842E+00 0.00000000E+00    4
AMPK_ATP                H   1C   0    0    0G    200      6000     1000        1
 1.65326226E+00 1.00263099E-02-3.31661238E-06 5.36483138E-10-3.14696758E-14    2
-1.00095936E+04 9.90506283E+00 5.14911468E+00-1.36622009E-02 4.91453921E-05    3
-4.84246767E-08 1.66603441E-11-1.02465983E+04-4.63848842E+00 0.00000000E+00    4
AMPK_ADP                H   1C   0    0    0G    200      6000     1000        1
 1.65326226E+00 1.00263099E-02-3.31661238E-06 5.36483138E-10-3.14696758E-14    2
-1.00095936E+04 9.90506283E+00 5.14911468E+00-1.36622009E-02 4.91453921E-05    3
-4.84246767E-08 1.66603441E-11-1.02465983E+04-4.63848842E+00 0.00000000E+00    4
AMPK_AMP                H   1C   0    0    0G    200      6000     1000        1
 1.65326226E+00 1.00263099E-02-3.31661238E-06 5.36483138E-10-3.14696758E-14    2
-1.00095936E+04 9.90506283E+00 5.14911468E+00-1.36622009E-02 4.91453921E-05    3
-4.84246767E-08 1.66603441E-11-1.02465983E+04-4.63848842E+00 0.00000000E+00    4
AMPK                    H   1C   0    0    0G    200      6000     1000        1
 1.65326226E+00 1.00263099E-02-3.31661238E-06 5.36483138E-10-3.14696758E-14    2
-1.00095936E+04 9.90506283E+00 5.14911468E+00-1.36622009E-02 4.91453921E-05    3
-4.84246767E-08 1.66603441E-11-1.02465983E+04-4.63848842E+00 0.00000000E+00    4
PYRUVATE                H   1C   0    0    0G    200      6000     1000        1
 1.65326226E+00 1.00263099E-02-3.31661238E-06 5.36483138E-10-3.14696758E-14    2
-1.00095936E+04 9.90506283E+00 5.14911468E+00-1.36622009E-02 4.91453921E-05    3
-4.84246767E-08 1.66603441E-11-1.02465983E+04-4.63848842E+00 0.00000000E+00    4
RAPOUT                  H   1C   0    0    0G    200      6000     1000        1
 1.65326226E+00 1.00263099E-02-3.31661238E-06 5.36483138E-10-3.14696758E-14    2
-1.00095936E+04 9.90506283E+00 5.14911468E+00-1.36622009E-02 4.91453921E-05    3
-4.84246767E-08 1.66603441E-11-1.02465983E+04-4.63848842E+00 0.00000000E+00    4
RAP                     H   1C   0    0    0G    200      6000     1000        1
 1.65326226E+00 1.00263099E-02-3.31661238E-06 5.36483138E-10-3.14696758E-14    2
-1.00095936E+04 9.90506283E+00 5.14911468E+00-1.36622009E-02 4.91453921E-05    3
-4.84246767E-08 1.66603441E-11-1.02465983E+04-4.63848842E+00 0.00000000E+00    4
MTORA                   H   1C   0    0    0G    200      6000     1000        1
 1.65326226E+00 1.00263099E-02-3.31661238E-06 5.36483138E-10-3.14696758E-14    2
-1.00095936E+04 9.90506283E+00 5.14911468E+00-1.36622009E-02 4.91453921E-05    3
-4.84246767E-08 1.66603441E-11-1.02465983E+04-4.63848842E+00 0.00000000E+00    4
RK                      H   1C   0    0    0G    200      6000     1000        1
 1.65326226E+00 1.00263099E-02-3.31661238E-06 5.36483138E-10-3.14696758E-14    2
-1.00095936E+04 9.90506283E+00 5.14911468E+00-1.36622009E-02 4.91453921E-05    3
-4.84246767E-08 1.66603441E-11-1.02465983E+04-4.63848842E+00 0.00000000E+00    4
FKBP12                  H   1C   0    0    0G    200      6000     1000        1
 1.65326226E+00 1.00263099E-02-3.31661238E-06 5.36483138E-10-3.14696758E-14    2
-1.00095936E+04 9.90506283E+00 5.14911468E+00-1.36622009E-02 4.91453921E-05    3
-4.84246767E-08 1.66603441E-11-1.02465983E+04-4.63848842E+00 0.00000000E+00    4
RKMTORA                 H   1C   0    0    0G    200      6000     1000        1
 1.65326226E+00 1.00263099E-02-3.31661238E-06 5.36483138E-10-3.14696758E-14    2
-1.00095936E+04 9.90506283E+00 5.14911468E+00-1.36622009E-02 4.91453921E-05    3
-4.84246767E-08 1.66603441E-11-1.02465983E+04-4.63848842E+00 0.00000000E+00    4
REF                     H   1C   0    0    0G    200      6000     1000        1
 1.65326226E+00 1.00263099E-02-3.31661238E-06 5.36483138E-10-3.14696758E-14    2
-1.00095936E+04 9.90506283E+00 5.14911468E+00-1.36622009E-02 4.91453921E-05    3
-4.84246767E-08 1.66603441E-11-1.02465983E+04-4.63848842E+00 0.00000000E+00    4
END
REACTIONS MOLES KELVINS

! Matlab cikk reakcioi
! R0001
GLUCOSE+ADP=>PYRUVATE + ATP                1.6661E+01  0.00000         0.00
!elso lepes k-ja mervado --> masodik egy nagysagrenddel gyorsabbra allitva
PYRUVATE+ADP=> REF + ATP                1.6661E+02  0.00000         0.00
! R0002
ATP=>ADP                            1.4E+01     0.00000         0.00
! R0003
2 ADP=>ATP+AMP                       1.6E-02     0.00000         0.00
! R0004
ATP+AMP=>2 ADP                       1.6E-02     0.00000         0.00
! Innentol Izmos cikk reakcioi
! R0005
ATP+AMPK=>AMPK_ATP + REF              1E+06     0.00000         0.00 !k6f, Coccimiglio IF, Clarke DC (2020) ADP is the dominant controller of AMP-activated protein kinase activity dynamics in skeletal muscle during exercise. PLoS Comput Biol 16(7): e1008079
! R0006
AMPK_ATP + REF=>ATP+AMPK              2.2E-01     0.00000         0.00 !k6r, Coccimiglio IF, Clarke DC (2020) ADP is the dominant controller of AMP-activated protein kinase activity dynamics in skeletal muscle during exercise. PLoS Comput Biol 16(7): e1008079
! R0007
ADP+AMPK=>AMPK_ADP + REF              1.5E+06     0.00000         0.00 !k7f, Coccimiglio IF, Clarke DC (2020) ADP is the dominant controller of AMP-activated protein kinase activity dynamics in skeletal muscle during exercise. PLoS Comput Biol 16(7): e1008079
! R0008
AMPK_ADP + REF=>ADP+AMPK              2.25E-03     0.00000         0.00 !k7r, Coccimiglio IF, Clarke DC (2020) ADP is the dominant controller of AMP-activated protein kinase activity dynamics in skeletal muscle during exercise. PLoS Comput Biol 16(7): e1008079
! R0009
AMP+AMPK=>AMPK_AMP + REF              1.5E+06     0.00000         0.00 !k8f, Coccimiglio IF, Clarke DC (2020) ADP is the dominant controller of AMP-activated protein kinase activity dynamics in skeletal muscle during exercise. PLoS Comput Biol 16(7): e1008079
! R0010
AMPK_AMP + REF=>AMP+AMPK              3.75E-03     0.00000         0.00 !k8r, Coccimiglio IF, Clarke DC (2020) ADP is the dominant controller of AMP-activated protein kinase activity dynamics in skeletal muscle during exercise. PLoS Comput Biol 16(7): e1008079
! Rpamycin Module
RAPOUT=>RAP                         6.6700E-09  0.00000         0.00
RAP=>RAPOUT                         3.3333E-03  0.00000         0.00
RAP+FKBP12=>RK+REF                  1.9000E+09  0.00000         0.00               
REF+RK=>RAP+FKBP12                  5.3000E-04  0.00000         0.00
RK+MTORA=>RKMTORA+REF               2.6000E+09  0.00000         0.00
RKMTORA+REF=>RK+MTORA               3.0800E-02  0.00000         0.00
END
